ELMER SOLVER (v 9.0) STARTED AT: 2024/08/20 15:46:43
ParCommInit:  Initialize #PEs:            1
MAIN: 
MAIN: =============================================================
MAIN: ElmerSolver finite element software, Welcome!
MAIN: This program is free software licensed under (L)GPL
MAIN: Copyright 1st April 1995 - , CSC - IT Center for Science Ltd.
MAIN: Webpage http://www.csc.fi/elmer, Email elmeradm@csc.fi
MAIN: Version: 9.0 (Rev: 14ca23078, Compiled: 2024-07-24)
MAIN:  Running one task without MPI parallelization.
MAIN:  Running with just one thread per task.
MAIN:  MUMPS library linked in.
MAIN:  Lua interpreter linked in.
MAIN: =============================================================
MAIN: 
MAIN: 
MAIN: -------------------------------------
MAIN: Reading Model: case.sif
LoadInputFile: Scanning input file: case.sif
LoadInputFile: Scanning only size info
LoadInputFile: First time visiting
LoadInputFile: Reading base load of sif file
LoadInputFile: Loading input file: case.sif
LoadInputFile: Reading base load of sif file
CheckKeyword:  Unlisted keyword: [writedataname] in section: [solver 2]
CheckKeyword:  Unlisted keyword: [readdataname] in section: [solver 2]
CheckKeyword:  Unlisted keyword: [r1_1] in section: [boundary condition 2]
LoadInputFile: Number of BCs: 2
LoadInputFile: Number of Body Forces: 0
LoadInputFile: Number of Initial Conditions: 0
LoadInputFile: Number of Materials: 1
LoadInputFile: Number of Equations: 1
LoadInputFile: Number of Solvers: 2
LoadInputFile: Number of Bodies: 1
ListTagKeywords: Setting weight for keywords!
ListTagKeywords: No parameters width suffix: normalize by area
ListTagKeywords: Setting weight for keywords!
ListTagKeywords: No parameters width suffix: normalize by volume
ElmerAsciiMesh: Base mesh name: ./case
MapCoordinates: Scaling coordinates: 1.000E-03 1.000E-03 1.000E-03
LoadMesh: Elapsed REAL time:     0.0367 (s)
MAIN: -------------------------------------
AddVtuOutputSolverHack: Adding ResultOutputSolver to write VTU output in file: case
OptimizeBandwidth: Initial bandwidth for static current conduction: 6756
OptimizeBandwidth: Optimized bandwidth for static current conduction: 269
MAIN: Number of timesteps to be saved: 1000
MAIN: 
MAIN: -------------------------------------
MAIN:  Steady state iteration:            1
MAIN: -------------------------------------
MAIN: 
StatCurrentSolve: -------------------------------------
StatCurrentSolve: STAT CURRENT SOLVER:
StatCurrentSolve: -------------------------------------
StatCurrentSolve: Static current iteration: 1
StatCurrentSolve:  Assembly (s)          :   8.7263000000000007E-002
       2 0.6916E-11
ComputeChange: NS (ITER=1) (NRM,RELC): (  649.99999      2.0000000     ) :: static current conduction
StatCurrentSolve:  Solve (s)             :   4.0056000000000036E-002
StatCurrentSolve:  Total Heating Power   :   3.3136018724652210E-008
StatCurrentSolve: Static current iteration: 2
StatCurrentSolve:  Assembly (s)          :   5.7228999999999974E-002
       1 0.4707E-15
ComputeChange: NS (ITER=2) (NRM,RELC): (  650.00000     0.11876011E-07 ) :: static current conduction
StatCurrentSolve:  Solve (s)             :   4.0439999999999976E-002
StatCurrentSolve:  Total Heating Power   :   2.4875705515803415E-009
ComputeChange: SS (ITER=1) (NRM,RELC): (  650.00000      2.0000000     ) :: static current conduction
CouplerSolver: Initializing Coupler Solver
 r1_1   
CouplerSolver: Boundary Name: r1_1
CouplerSolver: Number of nodes at interface:417
 BC:    1000.1000000000000        1000.1000000000000        1000.1000000000000        1000.1000000000000        1000.1000000000000        1000.1000000000000        1000.1000000000000        1000.1000000000000        1000.1000000000000        1000.1000000000000        1000.1000000000000        1000.1000000000000        1000.1000000000000        1000.1000000000000        1000.1000000000000        1000.1000000000000        1000.1000000000000        1000.1000000000000        1000.1000000000000        1000.1000000000000        1000.1000000000000        1000.1000000000000        1000.1000000000000        1000.1000000000000        1000.1000000000000        1000.1000000000000        1000.1000000000000        1000.1000000000000        1000.1000000000000        1000.1000000000000        1000.1000000000000        1000.1000000000000        1000.1000000000000        1000.1000000000000        1000.1000000000000        1000.1000000000000        1000.1000000000000        1000.1000000000000        1000.1000000000000        1000.1000000000000        1000.1000000000000        1000.1000000000000        1000.1000000000000        1000.1000000000000        1000.1000000000000        1000.1000000000000        1000.1000000000000        1000.1000000000000        1000.1000000000000        1000.1000000000000        1000.1000000000000        1000.1000000000000        1000.1000000000000        1000.1000000000000        1000.1000000000000        1000.1000000000000        1000.1000000000000        1000.1000000000000        1000.1000000000000        1000.1000000000000        1000.1000000000000        1000.1000000000000        1000.1000000000000        1000.1000000000000        1000.1000000000000        1000.1000000000000        1000.1000000000000        1000.1000000000000        1000.1000000000000        1000.1000000000000        1000.1000000000000        1000.1000000000000        1000.1000000000000        1000.1000000000000        1000.1000000000000        1000.1000000000000        1000.1000000000000        1000.1000000000000        1000.1000000000000        1000.1000000000000        1000.1000000000000        1000.1000000000000        1000.1000000000000        1000.1000000000000        1000.1000000000000        1000.1000000000000        1000.1000000000000        1000.1000000000000        1000.1000000000000        1000.1000000000000        1000.1000000000000        1000.1000000000000        1000.1000000000000        1000.1000000000000        1000.1000000000000        1000.1000000000000        1000.1000000000000        1000.1000000000000        1000.1000000000000        1000.1000000000000        1000.1000000000000        1000.1000000000000        1000.1000000000000        1000.1000000000000        1000.1000000000000        1000.1000000000000        1000.1000000000000        1000.1000000000000        1000.1000000000000        1000.1000000000000        1000.1000000000000        1000.1000000000000        1000.1000000000000        1000.1000000000000        1000.1000000000000        1000.1000000000000        1000.1000000000000        1000.1000000000000        1000.1000000000000        1000.1000000000000        1000.1000000000000        1000.1000000000000        1000.1000000000000        1000.1000000000000        1000.1000000000000        1000.1000000000000        1000.1000000000000        1000.1000000000000        1000.1000000000000        1000.1000000000000        1000.1000000000000        1000.1000000000000        1000.1000000000000        1000.1000000000000        1000.1000000000000        1000.1000000000000        1000.1000000000000        1000.1000000000000        1000.1000000000000        1000.1000000000000        1000.1000000000000        1000.1000000000000        1000.1000000000000        1000.1000000000000        1000.1000000000000        1000.1000000000000        1000.1000000000000        1000.1000000000000        1000.1000000000000        1000.1000000000000        1000.1000000000000        1000.1000000000000        1000.1000000000000        1000.1000000000000        1000.1000000000000        1000.1000000000000        1000.1000000000000        1000.1000000000000        1000.1000000000000        1000.1000000000000        1000.1000000000000        1000.1000000000000        1000.1000000000000        1000.1000000000000        1000.1000000000000        1000.1000000000000        1000.1000000000000        1000.1000000000000        1000.1000000000000        1000.1000000000000        1000.1000000000000        1000.1000000000000        1000.1000000000000        1000.1000000000000        1000.1000000000000        1000.1000000000000        1000.1000000000000        1000.1000000000000        1000.1000000000000        1000.1000000000000        1000.1000000000000        1000.1000000000000        1000.1000000000000        1000.1000000000000        1000.1000000000000        1000.1000000000000        1000.1000000000000        1000.1000000000000        1000.1000000000000        1000.1000000000000        1000.1000000000000        1000.1000000000000        1000.1000000000000        1000.1000000000000        1000.1000000000000        1000.1000000000000        1000.1000000000000        1000.1000000000000        1000.1000000000000        1000.1000000000000        1000.1000000000000        1000.1000000000000        1000.1000000000000        1000.1000000000000        1000.1000000000000        1000.1000000000000        1000.1000000000000        1000.1000000000000        1000.1000000000000        1000.1000000000000        1000.1000000000000        1000.1000000000000        1000.1000000000000        1000.1000000000000        1000.1000000000000        1000.1000000000000        1000.1000000000000        1000.1000000000000        1000.1000000000000        1000.1000000000000        1000.1000000000000        1000.1000000000000        1000.1000000000000        1000.1000000000000        1000.1000000000000        1000.1000000000000        1000.1000000000000        1000.1000000000000        1000.1000000000000        1000.1000000000000        1000.1000000000000        1000.1000000000000        1000.1000000000000        1000.1000000000000        1000.1000000000000        1000.1000000000000        1000.1000000000000        1000.1000000000000        1000.1000000000000        1000.1000000000000        1000.1000000000000        1000.1000000000000        1000.1000000000000        1000.1000000000000        1000.1000000000000        1000.1000000000000        1000.1000000000000        1000.1000000000000        1000.1000000000000        1000.1000000000000        1000.1000000000000        1000.1000000000000        1000.1000000000000        1000.1000000000000        1000.1000000000000        1000.1000000000000        1000.1000000000000        1000.1000000000000        1000.1000000000000        1000.1000000000000        1000.1000000000000        1000.1000000000000        1000.1000000000000        1000.1000000000000        1000.1000000000000        1000.1000000000000        1000.1000000000000        1000.1000000000000        1000.1000000000000        1000.1000000000000        1000.1000000000000        1000.1000000000000        1000.1000000000000        1000.1000000000000        1000.1000000000000        1000.1000000000000        1000.1000000000000        1000.1000000000000        1000.1000000000000        1000.1000000000000        1000.1000000000000        1000.1000000000000        1000.1000000000000        1000.1000000000000        1000.1000000000000        1000.1000000000000        1000.1000000000000        1000.1000000000000        1000.1000000000000        1000.1000000000000        1000.1000000000000        1000.1000000000000        1000.1000000000000        1000.1000000000000        1000.1000000000000        1000.1000000000000        1000.1000000000000        1000.1000000000000        1000.1000000000000        1000.1000000000000        1000.1000000000000        1000.1000000000000        1000.1000000000000        1000.1000000000000        1000.1000000000000        1000.1000000000000        1000.1000000000000        1000.1000000000000        1000.1000000000000        1000.1000000000000        1000.1000000000000        1000.1000000000000        1000.1000000000000        1000.1000000000000        1000.1000000000000        1000.1000000000000        1000.1000000000000        1000.1000000000000        1000.1000000000000        1000.1000000000000        1000.1000000000000        1000.1000000000000        1000.1000000000000        1000.1000000000000        1000.1000000000000        1000.1000000000000        1000.1000000000000        1000.1000000000000        1000.1000000000000        1000.1000000000000        1000.1000000000000        1000.1000000000000        1000.1000000000000        1000.1000000000000        1000.1000000000000        1000.1000000000000        1000.1000000000000        1000.1000000000000        1000.1000000000000        1000.1000000000000        1000.1000000000000        1000.1000000000000        1000.1000000000000        1000.1000000000000        1000.1000000000000        1000.1000000000000        1000.1000000000000        1000.1000000000000        1000.1000000000000        1000.1000000000000        1000.1000000000000        1000.1000000000000        1000.1000000000000        1000.1000000000000        1000.1000000000000        1000.1000000000000        1000.1000000000000        1000.1000000000000        1000.1000000000000        1000.1000000000000        1000.1000000000000        1000.1000000000000        1000.1000000000000        1000.1000000000000        1000.1000000000000        1000.1000000000000        1000.1000000000000        1000.1000000000000        1000.1000000000000        1000.1000000000000        1000.1000000000000        1000.1000000000000        1000.1000000000000        1000.1000000000000        1000.1000000000000        1000.1000000000000        1000.1000000000000        1000.1000000000000        1000.1000000000000        1000.1000000000000        1000.1000000000000        1000.1000000000000        1000.1000000000000        1000.1000000000000        1000.1000000000000        1000.1000000000000        1000.1000000000000        1000.1000000000000        1000.1000000000000        1000.1000000000000        1000.1000000000000        1000.1000000000000        1000.1000000000000        1000.1000000000000        1000.1000000000000        1000.1000000000000        1000.1000000000000        1000.1000000000000        1000.1000000000000        1000.1000000000000        1000.1000000000000        1000.1000000000000        1000.1000000000000        1000.1000000000000        1000.1000000000000        1000.1000000000000        1000.1000000000000        1000.1000000000000        1000.1000000000000        1000.1000000000000        1000.1000000000000        1000.1000000000000        1000.1000000000000        1000.1000000000000        1000.1000000000000        1000.1000000000000        1000.1000000000000     
CouplerSolver: Created nodes at interface
CouplerSolver: Using existing variable : potential
CouplerSolver: Ended
ResultOutputSolver: -------------------------------------
ResultOutputSolver: Saving with prefix: case
ResultOutputSolver: Creating list for saving - if not present
CreateListForSaving: Field Variables for Saving
ResultOutputSolver: Saving in unstructured VTK XML (.vtu) format
VtuOutputSolver: Saving results in VTK XML format with prefix: case
VtuOutputSolver: Saving number of partitions: 1
ResultOutputSolver: -------------------------------------
MAIN: 
MAIN: -------------------------------------
MAIN:  Steady state iteration:            2
MAIN: -------------------------------------
MAIN: 
StatCurrentSolve: -------------------------------------
StatCurrentSolve: STAT CURRENT SOLVER:
StatCurrentSolve: -------------------------------------
StatCurrentSolve: Static current iteration: 1
StatCurrentSolve:  Assembly (s)          :   6.3234999999999930E-002
       1 0.1075E-14
ComputeChange: NS (ITER=1) (NRM,RELC): (  650.00006     0.10019898E-06 ) :: static current conduction
StatCurrentSolve:  Solve (s)             :   3.9198999999999984E-002
StatCurrentSolve:  Total Heating Power   :   8.1683293376833330E-007
StatCurrentSolve: Static current iteration: 2
StatCurrentSolve:  Assembly (s)          :   6.0667000000000026E-002
       1 0.3899E-15
ComputeChange: NS (ITER=2) (NRM,RELC): (  650.00006     0.87642924E-10 ) :: static current conduction
StatCurrentSolve:  Solve (s)             :   4.0494000000000030E-002
StatCurrentSolve:  Total Heating Power   :   8.1834295522797980E-007
ComputeChange: SS (ITER=2) (NRM,RELC): (  650.00006     0.10028663E-06 ) :: static current conduction
CouplerSolver: Ended
ResultOutputSolver: -------------------------------------
ResultOutputSolver: Saving in unstructured VTK XML (.vtu) format
ResultOutputSolver: -------------------------------------
MAIN: *** Elmer Solver: ALL DONE ***
MAIN: The end
SOLVER TOTAL TIME(CPU,REAL):         0.84        1.10
ELMER SOLVER FINISHED AT: 2024/08/20 15:46:44
